Version 4
SHEET 1 1884 724
WIRE 736 -320 576 -320
WIRE 768 -320 736 -320
WIRE 896 -320 848 -320
WIRE 1056 -320 896 -320
WIRE 576 -272 576 -320
WIRE 1056 -272 1056 -320
WIRE 736 -240 736 -320
WIRE 896 -240 896 -320
WIRE 576 -160 576 -208
WIRE 656 -160 576 -160
WIRE 1056 -160 1056 -208
WIRE 1056 -160 976 -160
WIRE 656 -80 608 -80
WIRE 1120 -80 976 -80
WIRE 448 0 256 0
WIRE 608 0 608 -80
WIRE 608 0 448 0
WIRE 656 0 608 0
WIRE 1120 0 1120 -80
WIRE 1120 0 976 0
WIRE 448 16 448 0
WIRE 256 48 256 0
WIRE 256 48 -176 48
WIRE 608 80 608 0
WIRE 656 80 608 80
WIRE 992 80 976 80
WIRE 1072 80 1056 80
WIRE -176 96 -176 48
WIRE 448 112 448 80
WIRE 656 160 608 160
WIRE 1072 160 1072 80
WIRE 1072 160 976 160
WIRE 1120 160 1120 0
WIRE 1120 160 1072 160
WIRE 1168 160 1120 160
WIRE 1264 160 1168 160
WIRE 1600 160 1264 160
WIRE 608 192 608 160
WIRE 1168 192 1168 160
WIRE 1600 208 1600 160
WIRE -176 224 -176 176
WIRE 1264 224 1264 160
WIRE 1568 224 1456 224
WIRE 656 240 480 240
WIRE 1008 240 976 240
WIRE 1456 256 1456 224
WIRE 1008 272 1008 240
WIRE 1168 288 1168 256
WIRE 480 320 480 240
WIRE 656 320 480 320
WIRE 1264 320 1264 304
WIRE 1264 320 976 320
WIRE 1264 336 1264 320
WIRE 1600 352 1600 272
WIRE 1456 384 1456 336
WIRE 480 400 480 320
WIRE 656 400 480 400
WIRE 1088 400 976 400
WIRE 1264 448 1264 416
WIRE 480 464 480 400
WIRE 656 480 592 480
WIRE 1072 480 976 480
WIRE 1072 496 1072 480
WIRE 1456 512 1456 464
WIRE 592 528 592 480
WIRE 480 560 480 528
WIRE 1072 592 1072 576
WIRE 592 640 592 608
WIRE 1072 704 1072 656
FLAG -176 224 0
FLAG 448 112 0
FLAG 608 192 0
FLAG 480 560 0
FLAG 592 640 0
FLAG 1008 272 0
FLAG 1264 448 0
FLAG 1168 288 0
FLAG 1072 704 0
FLAG 1600 352 0
FLAG 1568 256 0
FLAG 1456 512 0
SYMBOL voltage -176 80 R0
WINDOW 123 0 0 Left 0
WINDOW 39 0 0 Left 0
SYMATTR InstName V1
SYMATTR Value 20
SYMBOL PowerProducts\\LT3120 816 48 R0
SYMATTR InstName U1
SYMBOL ind 752 -304 R270
WINDOW 0 32 56 VTop 2
WINDOW 3 5 56 VBottom 2
SYMATTR InstName L1
SYMATTR Value 3.3µ
SYMBOL cap 560 -272 R0
SYMATTR InstName C1
SYMATTR Value 220n
SYMBOL cap 1072 -272 M0
SYMATTR InstName C2
SYMATTR Value 220n
SYMBOL cap 432 16 R0
SYMATTR InstName C3
SYMATTR Value 330µ
SYMBOL cap 464 464 R0
SYMATTR InstName C4
SYMATTR Value 4.7µ
SYMBOL res 576 512 R0
SYMATTR InstName R1
SYMATTR Value 100k
SYMBOL res 1248 208 R0
SYMATTR InstName R2
SYMATTR Value 112k
SYMBOL res 1248 320 R0
SYMATTR InstName R3
SYMATTR Value 8k
SYMBOL cap 1152 192 R0
SYMATTR InstName C5
SYMATTR Value 150µ
SYMATTR Value2 ic=12
SYMBOL cap 1056 64 R90
WINDOW 0 0 32 VBottom 2
WINDOW 3 32 32 VTop 2
SYMATTR InstName C6
SYMATTR Value 22n
SYMBOL res 1056 480 R0
SYMATTR InstName R4
SYMATTR Value 56.2k
SYMBOL cap 1056 592 R0
SYMATTR InstName C7
SYMATTR Value 680p
SYMBOL voltage 1456 240 R0
WINDOW 123 0 0 Left 0
WINDOW 39 0 0 Left 0
SYMATTR InstName V2
SYMATTR Value PULSE(10 0 2m 1n 1n 1 1)
SYMBOL ESM\\Ideal\ Components\\VeRES 1600 240 R0
SYMATTR InstName U2
SYMBOL voltage 1456 368 R0
WINDOW 123 0 0 Left 0
WINDOW 39 0 0 Left 0
SYMATTR InstName V3
SYMATTR Value PULSE(1000000 2 1m 1n 1n 1 1)
TEXT -208 248 Left 2 !.tran 10m startup uic
TEXT 72 144 Left 2 ;need 22V zener clamp+fuse
TEXT 1496 104 Left 2 ;load switching
