Version 4
SHEET 1 1884 724
WIRE 352 -64 -96 -64
WIRE 352 0 352 -64
WIRE -96 48 -96 -64
WIRE -96 48 -176 48
WIRE 192 48 -96 48
WIRE 864 48 512 48
WIRE 1040 48 864 48
WIRE -176 96 -176 48
WIRE 1040 96 1040 48
WIRE 48 128 -32 128
WIRE 192 128 48 128
WIRE 656 128 512 128
WIRE 704 128 656 128
WIRE 768 128 704 128
WIRE 864 128 864 48
WIRE 864 128 848 128
WIRE 704 144 704 128
WIRE 864 144 864 128
WIRE 1040 192 1040 160
WIRE -32 208 -32 192
WIRE 192 208 128 208
WIRE 544 208 512 208
WIRE 656 208 656 128
WIRE 656 208 608 208
WIRE -176 224 -176 176
WIRE 48 240 48 208
WIRE 128 240 128 208
WIRE 704 240 704 208
WIRE 864 288 864 224
WIRE 864 288 512 288
WIRE 864 320 864 288
WIRE 48 336 48 304
WIRE 128 352 128 320
WIRE 352 352 352 336
WIRE 864 448 864 400
FLAG -176 224 0
FLAG 864 448 0
FLAG 704 240 0
FLAG 48 336 0
FLAG 128 352 0
FLAG 352 352 0
FLAG 1040 192 0
FLAG -32 208 0
SYMBOL voltage -176 80 R0
WINDOW 123 0 0 Left 0
WINDOW 39 0 0 Left 0
SYMATTR InstName V1
SYMATTR Value 12
SYMBOL PowerProducts\\LT3680 352 176 R0
SYMATTR InstName U1
SYMBOL ind 864 112 R90
WINDOW 0 5 56 VBottom 2
WINDOW 3 32 56 VTop 2
SYMATTR InstName L1
SYMATTR Value 4.7µ
SYMBOL cap 608 192 R90
WINDOW 0 0 32 VBottom 2
WINDOW 3 32 32 VTop 2
SYMATTR InstName C1
SYMATTR Value 470n
SYMBOL res 848 128 R0
SYMATTR InstName R1
SYMATTR Value 78.6k
SYMBOL res 848 304 R0
SYMATTR InstName R2
SYMATTR Value 10k
SYMBOL schottky 720 208 R180
WINDOW 0 24 64 Left 2
WINDOW 3 24 0 Left 2
SYMATTR InstName D1
SYMATTR Value MBRS1100
SYMATTR Description Diode
SYMATTR Type diode
SYMBOL res 32 112 R0
SYMATTR InstName R3
SYMATTR Value 20k
SYMBOL cap 32 240 R0
SYMATTR InstName C2
SYMATTR Value 47n
SYMBOL res 112 224 R0
SYMATTR InstName R4
SYMATTR Value 68.1k
SYMBOL cap 1024 96 R0
SYMATTR InstName C3
SYMATTR Value 33µ
SYMBOL cap -48 128 R0
SYMATTR InstName C4
SYMATTR Value 470p
TEXT -208 248 Left 2 !.tran 10m startup uic
